12
Na6 Cl6
Na 2.275158 3.940689 3.547419
Na 2.249319 0.000000 3.547419
Na 2.275158 -3.940689 3.547419
Na 1.144280 1.981951 0.000000
Na 4.511075 0.000000 0.000000
Na 1.144280 -1.981951 0.000000
Cl 3.399817 -1.962885 1.776881
Cl 3.399817 -1.962885 5.317957
Cl 3.399817 1.962885 5.317957
Cl 3.399817 1.962885 1.776881
Cl 0.000000 0.000000 5.327599
Cl 0.000000 0.000000 1.767239